# Packages
 &PACKAGES
 useOBCS=.FALSE.,
 useMNC=.TRUE.,
 useKPP=.TRUE.,
 &
